<configuration>
   <input>
       <net-file value="highway.net.xml"/>
       <route-files value="highway.rou.xml"/>
   </input>
</configuration>
