<?xml version="1.0" encoding="UTF-8"?>

<!-- generated on ter 13 set 2022 23:21:39 by Eclipse SUMO netedit Version 1.8.0
<configuration xmlns:xsi="http://www.w3.org/2001/XMLSchema-instance" xsi:noNamespaceSchemaLocation="http://sumo.dlr.de/xsd/netconvertConfiguration.xsd">

    <output>
        <output-file value="/home/paulojna/sumo-1.8.0/src/netedit/highway.net.xml"/>
    </output>

    <processing>
        <offset.disable-normalization value="true"/>
    </processing>

    <junctions>
        <no-turnarounds value="true"/>
    </junctions>

    <netedit>
        <route-files value="/home/paulojna/sumo-1.8.0/src/netedit/highway.rou.xml"/>
    </netedit>

    <report>
        <aggregate-warnings value="5"/>
    </report>

</configuration>
-->

<net version="1.6" junctionCornerDetail="5" limitTurnSpeed="5.50" xmlns:xsi="http://www.w3.org/2001/XMLSchema-instance" xsi:noNamespaceSchemaLocation="http://sumo.dlr.de/xsd/net_file.xsd">

    <location netOffset="0.00,0.00" convBoundary="0.88,1.29,1000.76,1.29" origBoundary="10000000000.00,10000000000.00,-10000000000.00,-10000000000.00" projParameter="!"/>

    <edge id="gneE1" from="gneJ2" to="gneJ3" priority="-1">
        <lane id="gneE1_0" index="0" speed="13.89" length="999.88" shape="0.88,-3.51 1000.76,-3.51"/>
        <lane id="gneE1_1" index="1" speed="13.89" length="999.88" shape="0.88,-0.31 1000.76,-0.31"/>
    </edge>

    <junction id="gneJ2" type="dead_end" x="0.88" y="1.29" incLanes="" intLanes="" shape="0.88,1.29 0.88,-5.11"/>
    <junction id="gneJ3" type="dead_end" x="1000.76" y="1.29" incLanes="gneE1_0 gneE1_1" intLanes="" shape="1000.76,-5.11 1000.76,1.29"/>

</net>
