<?xml version="1.0" encoding="UTF-8"?>
<!-- generated on 2022-05-25 00:56:28.418147 by $Id$ v1_8_0+0044-4820708f3d
  options: 
-->
<routes xmlns:xsi="http://www.w3.org/2001/XMLSchema-instance" xsi:noNamespaceSchemaLocation="http://sumo.dlr.de/xsd/routes_file.xsd">
    <flow id="0" begin="0" end="1" period="50" from="G9G8" departPos="random" departSpeed="max"/>
    <flow id="1" begin="0" end="1" period="50" from="D1C1" departPos="random" departSpeed="max"/>
    <flow id="2" begin="0" end="1" period="50" from="H9I9" departPos="random" departSpeed="max"/>
    <flow id="3" begin="0" end="1" period="50" from="J5K5" departPos="random" departSpeed="max"/>
    <flow id="4" begin="0" end="1" period="50" from="E6E7" departPos="random" departSpeed="max"/>
    <flow id="5" begin="0" end="1" period="50" from="C5C4" departPos="random" departSpeed="max"/>
    <flow id="6" begin="0" end="1" period="50" from="A3A4" departPos="random" departSpeed="max"/>
    <flow id="7" begin="0" end="1" period="50" from="H0I0" departPos="random" departSpeed="max"/>
    <flow id="8" begin="0" end="1" period="50" from="C5C4" departPos="random" departSpeed="max"/>
    <flow id="9" begin="0" end="1" period="50" from="I7I6" departPos="random" departSpeed="max"/>
    <flow id="10" begin="0" end="1" period="50" from="I6J6" departPos="random" departSpeed="max"/>
    <flow id="11" begin="0" end="1" period="50" from="D8C8" departPos="random" departSpeed="max"/>
    <flow id="12" begin="0" end="1" period="50" from="K3K4" departPos="random" departSpeed="max"/>
    <flow id="13" begin="0" end="1" period="50" from="B1C1" departPos="random" departSpeed="max"/>
    <flow id="14" begin="0" end="1" period="50" from="J10K10" departPos="random" departSpeed="max"/>
    <flow id="15" begin="0" end="1" period="50" from="I7H7" departPos="random" departSpeed="max"/>
    <flow id="16" begin="0" end="1" period="50" from="F8F9" departPos="random" departSpeed="max"/>
    <flow id="17" begin="0" end="1" period="50" from="E1F1" departPos="random" departSpeed="max"/>
    <flow id="18" begin="0" end="1" period="50" from="I9I10" departPos="random" departSpeed="max"/>
    <flow id="19" begin="0" end="1" period="50" from="J2J3" departPos="random" departSpeed="max"/>
    <flow id="20" begin="0" end="1" period="50" from="H6H5" departPos="random" departSpeed="max"/>
    <flow id="21" begin="0" end="1" period="50" from="C6C5" departPos="random" departSpeed="max"/>
    <flow id="22" begin="0" end="1" period="50" from="B10B9" departPos="random" departSpeed="max"/>
    <flow id="23" begin="0" end="1" period="50" from="B2C2" departPos="random" departSpeed="max"/>
    <flow id="24" begin="0" end="1" period="50" from="G9F9" departPos="random" departSpeed="max"/>
    <flow id="25" begin="0" end="1" period="50" from="E10F10" departPos="random" departSpeed="max"/>
    <flow id="26" begin="0" end="1" period="50" from="D0E0" departPos="random" departSpeed="max"/>
    <flow id="27" begin="0" end="1" period="50" from="H0I0" departPos="random" departSpeed="max"/>
    <flow id="28" begin="0" end="1" period="50" from="C0D0" departPos="random" departSpeed="max"/>
    <flow id="29" begin="0" end="1" period="50" from="B9B8" departPos="random" departSpeed="max"/>
    <flow id="30" begin="0" end="1" period="50" from="K8K7" departPos="random" departSpeed="max"/>
    <flow id="31" begin="0" end="1" period="50" from="G10G9" departPos="random" departSpeed="max"/>
    <flow id="32" begin="0" end="1" period="50" from="J10I10" departPos="random" departSpeed="max"/>
    <flow id="33" begin="0" end="1" period="50" from="C6C5" departPos="random" departSpeed="max"/>
    <flow id="34" begin="0" end="1" period="50" from="D5D4" departPos="random" departSpeed="max"/>
    <flow id="35" begin="0" end="1" period="50" from="C4C3" departPos="random" departSpeed="max"/>
    <flow id="36" begin="0" end="1" period="50" from="J4I4" departPos="random" departSpeed="max"/>
    <flow id="37" begin="0" end="1" period="50" from="H10I10" departPos="random" departSpeed="max"/>
    <flow id="38" begin="0" end="1" period="50" from="J8J7" departPos="random" departSpeed="max"/>
    <flow id="39" begin="0" end="1" period="50" from="D0D1" departPos="random" departSpeed="max"/>
    <flow id="40" begin="0" end="1" period="50" from="G1F1" departPos="random" departSpeed="max"/>
    <flow id="41" begin="0" end="1" period="50" from="G3G4" departPos="random" departSpeed="max"/>
    <flow id="42" begin="0" end="1" period="50" from="E4D4" departPos="random" departSpeed="max"/>
    <flow id="43" begin="0" end="1" period="50" from="K9K10" departPos="random" departSpeed="max"/>
    <flow id="44" begin="0" end="1" period="50" from="B1C1" departPos="random" departSpeed="max"/>
    <flow id="45" begin="0" end="1" period="50" from="B3C3" departPos="random" departSpeed="max"/>
    <flow id="46" begin="0" end="1" period="50" from="I5I4" departPos="random" departSpeed="max"/>
    <flow id="47" begin="0" end="1" period="50" from="A8B8" departPos="random" departSpeed="max"/>
    <flow id="48" begin="0" end="1" period="50" from="K9K10" departPos="random" departSpeed="max"/>
    <flow id="49" begin="0" end="1" period="50" from="K5K6" departPos="random" departSpeed="max"/>
</routes>
